	14

Ir        -1.97200        1.45100       -1.06000
O         -3.26900        1.52000       -2.61700
O         -2.07700        3.46400       -0.82300
O         -2.10600       -0.58200       -1.00200
O         -0.61300        1.36900        0.49700
O         -3.57300        1.43400        0.18800
C          0.11800        0.51800        0.89400
O          0.32000       -0.59800        0.55000
Ir        -0.46200       -1.77300       -0.97500
O          1.02200       -3.12100       -0.65700
O         -1.23400       -2.91100       -2.46500
O         -1.49900       -2.91900        0.34200
O          0.71100       -0.98000       -2.42800
O         -0.55700        1.79400       -2.47500
